175

H         -2.84351        4.09316        3.48889
C         -3.24931        5.10367        3.52388
H         -2.47380        5.85182        3.36173
H         -3.73040        5.21600        4.49626
C         -4.34599        5.37910        2.43528
O         -5.44794        5.74970        2.78212
N         -4.01375        5.07143        1.18006
H         -3.02937        4.88435        1.05046
C         -4.84463        4.99974        0.00870
H         -5.84189        5.33327        0.29706
C         -4.46975        6.12692       -1.03059
H         -4.61577        7.08147       -0.52493
H         -3.40667        6.19468       -1.26259
C         -5.37810        6.09590       -2.23806
H         -5.14917        6.95477       -2.86914
H         -5.28953        5.11085       -2.69576
C         -6.87546        6.16397       -1.86655
O         -7.73702        5.48409       -2.45977
O         -7.21142        7.00989       -1.00327
C         -4.69569        3.57033       -0.62331
O         -3.63685        3.21076       -1.04588
N         -5.78815        2.84649       -0.67392
H         -6.65493        3.25575       -0.35515
C         -5.80162        1.39415       -1.15420
H         -6.83008        1.05347       -1.03078
C         -5.34208        1.08300       -2.64222
H         -4.25678        0.97767       -2.64290
H         -5.70145        0.06774       -2.80991
O         -5.78647        2.04426       -3.59155
H         -6.74415        2.06846       -3.53638
C         -4.99478        0.43181       -0.18025
O         -4.51376       -0.60359       -0.54810
N         -4.99097        0.73348        1.08324
H         -5.42413        1.63084        1.25096
C         -4.09192        0.15782        2.06835
H         -3.15277        0.36046        1.55232
C         -4.01213        0.98832        3.30920
H         -3.13781        0.61680        3.84454
H         -3.93688        2.03638        3.01961
C         -5.12291        0.77230        4.24656
O         -6.22827        0.38983        3.93527
N         -4.93322        1.16325        5.48360
H         -5.72984        1.02868        6.08911
H         -4.05379        1.51772        5.83345
C         -4.24339       -1.36219        2.36739
O         -3.30924       -1.99510        2.91881
N         -5.41385       -1.91568        1.93647
H         -6.00791       -1.30137        1.39675
C         -5.63256       -3.35755        1.96006
H         -5.30054       -3.85047        2.87438
C         -7.18925       -3.54718        1.91775
H         -7.43742       -4.60788        1.94353
H         -7.57675       -2.99425        2.77344
C         -7.96586       -2.99773        0.76710
C         -8.30890       -3.76180       -0.30406
H         -7.97193       -4.77766       -0.44755
N         -8.94144       -2.90070       -1.18432
H         -9.24335       -3.31257       -2.05594
C         -9.07556       -1.58692       -0.78330
C         -9.49190       -0.36384       -1.36095
H         -9.90913       -0.27034       -2.35354
C         -9.43483        0.76143       -0.58147
H         -9.75413        1.68180       -1.04688
C         -8.94146        0.73163        0.70896
H         -8.95989        1.66496        1.25249
C         -8.38452       -0.45062        1.23412
H         -7.98338       -0.57464        2.22890
C         -8.36605       -1.61230        0.49117
C         -4.91681       -4.06075        0.76858
O         -4.89108       -5.23333        0.76237
N         -4.41087       -3.36100       -0.27889
H         -4.58473       -2.36598       -0.24993
C         -3.74916       -3.88398       -1.43497
H         -3.32568       -4.83744       -1.11813
C         -4.65360       -4.25148       -2.65752
H         -4.05699       -4.67604       -3.46533
H         -5.46496       -4.86735       -2.26993
S         -5.38575       -2.73637       -3.46525
H         -6.17577       -2.41977       -2.43630
C         -2.48106       -3.08575       -1.91235
O         -1.82411       -3.48846       -2.88593
N         -2.16624       -1.88774       -1.38539
H         -2.64915       -1.60940       -0.54384
C         -0.91169       -1.20575       -1.63808
H         -0.85545       -1.12414       -2.72303
C         -1.04645        0.18431       -0.97580
H         -1.95294        0.75695       -1.17164
H         -1.14707        0.05055        0.10085
C          0.23124        0.99532       -1.17292
C          1.29209        0.84173       -0.29922
H          1.15566        0.24865        0.59235
C          2.59360        1.21270       -0.67487
H          3.47735        0.92474       -0.12407
C          2.79674        1.83331       -1.88637
O          4.11125        2.08582       -2.27331
H          4.08249        2.62675       -3.06540
C          1.72734        2.16915       -2.71055
H          1.82974        2.71148       -3.63909
C          0.40521        1.70593       -2.30898
H         -0.38482        1.87210       -3.02634
C          0.19534       -2.17181       -1.20111
O          0.05532       -2.92440       -0.20268
N          1.29697       -2.17648       -1.98972
H          1.26416       -1.47033       -2.71065
C          2.47478       -2.97875       -1.72097
H          2.17127       -4.02506       -1.66382
C          3.54413       -2.73382       -2.82171
H          4.28948       -3.45671       -2.48754
H          3.18773       -3.16070       -3.75976
C          4.16825       -1.33351       -2.95355
H          3.57481       -0.64225       -3.55098
H          4.31800       -0.90596       -1.96255
C          5.58086       -1.32617       -3.56039
O          6.06743       -2.37923       -3.93090
N          6.21474       -0.17457       -3.78862
H          7.06411       -0.37928       -4.29541
H          5.95921        0.72465       -3.40723
C          3.07917       -2.73254       -0.29771
O          2.81413       -1.72121        0.33893
N          3.73663       -3.74179        0.26815
H          3.94055       -4.58285       -0.25303
C          4.20739       -3.75010        1.67253
H          3.38938       -3.33244        2.25990
C          4.41500       -5.19149        2.17255
H          5.19491       -5.74030        1.64422
H          4.73468       -5.12870        3.21267
C          3.13443       -6.09300        2.19567
O          1.99391       -5.57902        2.24928
O          3.30924       -7.31978        2.25986
C          5.41006       -2.81408        1.95131
O          5.85688       -2.66963        3.08437
N          6.11846       -2.35971        0.89955
H          5.81765       -2.59174       -0.03685
C          7.22636       -1.37149        0.99642
H          7.96377       -1.73828        1.71044
C          7.78444       -1.11991       -0.45234
H          7.04260       -1.02799       -1.24616
H          8.38704       -0.21194       -0.42253
C          8.64517       -2.28549       -0.92432
O          8.09919       -3.33788       -1.31799
N          9.90830       -2.10885       -1.15223
H         10.41909       -2.72353       -1.77021
H         10.30208       -1.22153       -0.87357
C          6.71945        0.00299        1.59185
O          5.52336        0.26927        1.56316
N          7.60902        0.91518        1.95991
H          8.54293        0.53349        1.99451
C          7.29436        2.31900        2.32589
H          8.18926        2.79239        2.72927
C          6.88133        3.12832        1.04441
H          5.85088        2.87385        0.79818
H          6.95502        4.20007        1.22762
C          7.74132        3.00809       -0.12945
C          7.34885        2.28774       -1.17279
H          6.43833        1.72162       -1.30423
N          8.37642        2.24502       -2.06257
H          8.43415        1.51938       -2.76356
C          9.42797        3.11961       -1.69480
C         10.63270        3.48728       -2.22298
H         10.89077        3.14968       -3.21574
C         11.41732        4.41340       -1.55670
H         12.37282        4.70044       -1.97010
C         10.97998        5.05178       -0.39399
H         11.52948        5.82019        0.13143
C          9.74598        4.65163        0.18384
H          9.39738        5.08757        1.10806
C          8.96336        3.61571       -0.42027
C          6.34870        2.36663        3.57592
O          5.39795        3.20472        3.71224
N          6.56654        1.43008        4.56235
H          7.39627        0.85464        4.56864
C          5.77977        1.29073        5.85928
H          6.60109        1.28765        6.57688
H          5.11105        2.13005        6.05432
H          5.26960        0.32768        5.85646
